Version 4
SHEET 1 1784 680
WIRE -80 -144 -240 -144
WIRE 0 -144 -80 -144
WIRE 192 -144 0 -144
WIRE 368 -144 192 -144
WIRE 192 -112 192 -144
WIRE -240 -96 -240 -144
WIRE -80 -80 -80 -144
WIRE 0 -48 0 -144
WIRE 48 -48 0 -48
WIRE 368 -48 368 -144
WIRE 368 -48 336 -48
WIRE 0 -32 0 -48
WIRE 368 -32 368 -48
WIRE -240 48 -240 -16
WIRE -80 48 -80 -16
WIRE -80 48 -240 48
WIRE 0 48 0 32
WIRE 0 48 -80 48
WIRE 48 48 0 48
WIRE 368 48 368 32
WIRE 368 48 336 48
WIRE 1424 96 1360 96
WIRE 1424 112 1424 96
WIRE 0 144 -48 144
WIRE 48 144 0 144
WIRE 736 144 336 144
WIRE -48 160 -48 144
WIRE 496 176 448 176
WIRE 592 176 560 176
WIRE 1424 224 1424 192
WIRE -48 240 -48 224
WIRE 0 240 0 144
WIRE 48 240 0 240
WIRE 368 240 336 240
WIRE 368 256 368 240
WIRE 448 256 448 176
WIRE 480 256 448 256
WIRE 592 256 592 240
WIRE 592 256 560 256
WIRE 736 256 736 144
WIRE 736 256 592 256
WIRE 1424 256 1424 224
WIRE 368 336 368 320
WIRE 368 336 336 336
WIRE 480 336 368 336
WIRE 592 336 560 336
WIRE 736 336 736 256
WIRE 736 336 592 336
WIRE 592 352 592 336
WIRE 736 352 736 336
WIRE 1424 352 1424 336
WIRE 1424 352 1360 352
WIRE 592 432 336 432
WIRE 144 512 144 496
WIRE 144 608 144 592
WIRE 240 608 240 496
WIRE 240 608 144 608
WIRE 592 608 592 512
WIRE 592 608 240 608
WIRE 736 608 736 416
WIRE 736 608 592 608
FLAG 0 48 0
FLAG 368 48 0
FLAG 240 608 0
FLAG -48 240 0
FLAG 1360 96 Vpos
FLAG 736 608 Vneg
FLAG 592 176 Vpos
FLAG 1360 352 Vneg
FLAG 736 336 Vgnd
FLAG 1424 224 Vgnd
SYMBOL PowerProducts\\LT8641 192 192 R0
SYMATTR InstName U1
SYMBOL cap -16 -32 R0
SYMATTR InstName C1
SYMATTR Value 1µ
SYMBOL cap 352 -32 R0
SYMATTR InstName C2
SYMATTR Value 1µ
SYMBOL res 128 496 R0
SYMATTR InstName R1
SYMATTR Value 18k
SYMBOL cap 352 256 R0
SYMATTR InstName C4
SYMATTR Value 100n
SYMBOL ind2 576 320 R90
WINDOW 0 4 56 VBottom 2
WINDOW 3 32 56 VTop 2
SYMATTR InstName L1
SYMATTR Value 2.2µ
SYMBOL res 576 336 R0
SYMATTR InstName R2
SYMATTR Value 1Meg
SYMBOL res 576 416 R0
SYMATTR InstName R3
SYMATTR Value 56k
SYMBOL cap 720 352 R0
SYMATTR InstName C6
SYMATTR Value 10µ
SYMBOL voltage -240 -112 R0
WINDOW 123 0 0 Left 0
WINDOW 39 24 44 Left 2
SYMATTR SpiceLine Rser=0.01
SYMATTR InstName V1
SYMATTR Value 24V
SYMBOL cap -64 160 R0
SYMATTR InstName C7
SYMATTR Value 1µ
SYMBOL ind2 464 272 R270
WINDOW 0 32 56 VTop 2
WINDOW 3 4 56 VBottom 2
SYMATTR InstName L2
SYMATTR Value 2.2µ
SYMBOL cap 576 176 R0
SYMATTR InstName C3
SYMATTR Value 10µ
SYMBOL schottky 496 192 R270
WINDOW 0 32 32 VTop 2
WINDOW 3 0 32 VBottom 2
SYMATTR InstName D1
SYMATTR Value PMEG6010AED
SYMATTR Description Diode
SYMATTR Type diode
SYMBOL res 1408 96 R0
SYMATTR InstName R4
SYMATTR Value {RL}
SYMBOL res 1408 240 R0
SYMATTR InstName R5
SYMATTR Value {RL}
SYMBOL cap -96 -80 R0
SYMATTR InstName C5
SYMATTR Value 4.7µ
TEXT -272 632 Left 2 !.tran 300u uic
TEXT 440 88 Left 2 !K1 L1 L2 0.98
TEXT -272 608 Left 2 !.param RL=300
